*********************************************
*** Rambus Post-Processed Netlist ***
*********************************************
** Generated for: hspiceD
** Generated on: Mar 30 12:07:13 2016
** Design library name: io
** Design cell name: od12i
** Design view name: schematic

***********************************************************************************
** GLOBAL pwrn!
** WARNING Netlist is missing netsets. If this is a top level cell. FIX IT
***********************************************************************************


.subckt od12i VDD VREG emeas_odvref esel_odvref pad rxen rxoutB vrefsel[3] vrefsel[2] vrefsel[1] vrefsel[0] pwrn



** Library name: sclib_lvt
** Cell name: sc_invx2l
** View name: schematic

.subckt sc_invx2l a y inh_vdd inh_vss
XN0 y a inh_vss inh_vss nch_lvt_mac l=40n w=660.0n multi=1 nf=2 sd=160.0n ad=5.28e-14 as=9.24e-14 pd=980.0n ps=1.88u nrd=0.046963 nrs=0.046963 sa=201.53800n sb=201.53800n sca=2.81171 scb=0.000664299 scc=1.04238e-06 sa1=173.19800n sa2=199.0600n sa3=267.47200n sa4=198.52500n sb1=173.19800n sb2=199.0600n sb3=267.47200n spa=179.22100n spa1=178.83200n spa2=175.72700n spa3=177.01700n sap=190.75200n spba=207.68900n spba1=209.41200n enx=2.09649u enx1=2.09524u eny=977.48100n eny1=797.90800n eny2=967.61900n rex=4.10544u rey=1.83014u dfm_flag=0 sapb=229.99700n sa5=211.51900n sa6=266.42600n sodx=140.0n sodx1=244.25600n sodx2=857.56100n sody=901.74200n
XP0 y a inh_vdd inh_vdd pch_lvt_mac l=40n w=1.32u multi=1 nf=2 sd=160.0n ad=1.056e-13 as=1.848e-13 pd=1.64u ps=3.2u nrd=0.034889 nrs=0.034889 sa=201.53800n sb=201.53800n sca=10.5905 scb=0.00916442 scc=0.000801174 sa1=173.19800n sa2=199.0600n sa3=267.47200n sa4=198.52500n sb1=173.19800n sb2=199.0600n sb3=267.47200n spa=179.22100n spa1=178.83200n spa2=175.72700n spa3=177.01700n sap=190.75200n spba=207.68900n spba1=209.41200n enx=1.2944u enx1=1.29231u eny=328.42100n eny1=214.58900n eny2=305.23500n rex=4.23096u rey=921.12900n dfm_flag=0 sapb=229.99700n sa5=211.51900n sa6=266.42600n sodx=140.0n sodx1=244.25600n sodx2=857.56100n sody=711.5400n
.ends sc_invx2l
** End of subcircuit definition.

** Library name: io
** Cell name: cmos12oLS
** View name: schematic

.subckt cmos12oLS in out outb vddio inh_vdd inh_vss
XM0 outb in inh_vss inh_vss nch_12_mac l=70n w=800n multi=1 nf=1 sd=160.0n ad=1.12e-13 as=1.12e-13 pd=1.88u ps=1.88u nrd=0.029080 nrs=0.029080 sa=140.0n sb=140.0n sa1=140.0n sa2=140.0n sa3=140.0n sa4=140.0n sb1=140.0n sb2=140.0n sb3=140.0n spa=200n spa1=200n spa2=200n spa3=200n sap=178.708n spba=208.495n spba1=211.941n dfm_flag=0 sapb=190.886n
XM1 out inb inh_vss inh_vss nch_12_mac l=70n w=800n multi=1 nf=1 sd=160.0n ad=1.12e-13 as=1.12e-13 pd=1.88u ps=1.88u nrd=0.029080 nrs=0.029080 sa=140.0n sb=140.0n sa1=140.0n sa2=140.0n sa3=140.0n sa4=140.0n sb1=140.0n sb2=140.0n sb3=140.0n spa=200n spa1=200n spa2=200n spa3=200n sap=178.708n spba=208.495n spba1=211.941n dfm_flag=0 sapb=190.886n
XM3 net030 out vddio vddio pch_12_mac l=70n w=2.2u multi=1 nf=2 sd=160.0n ad=1.76e-13 as=3.08e-13 pd=2.52u ps=4.96u nrd=0.014537 nrs=0.014537 sa=209.397n sb=209.397n sa1=174.687n sa2=205.977n sa3=286.184n sa4=203.362n sb1=174.687n sb2=205.977n sb3=286.184n spa=179.221n spa1=178.832n spa2=175.794n spa3=177.223n sap=192.81n spba=210.358n spba1=213.47n dfm_flag=0 sapb=217.823n
XM2 net029 outb vddio vddio pch_12_mac l=70n w=2.2u multi=1 nf=2 sd=160.0n ad=1.76e-13 as=3.08e-13 pd=2.52u ps=4.96u nrd=0.014537 nrs=0.014537 sa=209.397n sb=209.397n sa1=174.687n sa2=205.977n sa3=286.184n sa4=203.362n sb1=174.687n sb2=205.977n sb3=286.184n spa=179.221n spa1=178.832n spa2=175.794n spa3=177.223n sap=192.81n spba=210.358n spba1=213.47n dfm_flag=0 sapb=217.823n
XM5 out inb net029 vddio pch_12_mac l=70n w=2.2u multi=1 nf=2 sd=160.0n ad=1.76e-13 as=3.08e-13 pd=2.52u ps=4.96u nrd=0.014537 nrs=0.014537 sa=209.397n sb=209.397n sa1=174.687n sa2=205.977n sa3=286.184n sa4=203.362n sb1=174.687n sb2=205.977n sb3=286.184n spa=179.221n spa1=178.832n spa2=175.794n spa3=177.223n sap=192.81n spba=210.358n spba1=213.47n dfm_flag=0 sapb=217.823n
XM4 outb in net030 vddio pch_12_mac l=70n w=2.2u multi=1 nf=2 sd=160.0n ad=1.76e-13 as=3.08e-13 pd=2.52u ps=4.96u nrd=0.014537 nrs=0.014537 sa=209.397n sb=209.397n sa1=174.687n sa2=205.977n sa3=286.184n sa4=203.362n sb1=174.687n sb2=205.977n sb3=286.184n spa=179.221n spa1=178.832n spa2=175.794n spa3=177.223n sap=192.81n spba=210.358n spba1=213.47n dfm_flag=0 sapb=217.823n
XU0 in inb inh_vdd inh_vss sc_invx2l
.ends cmos12oLS
** End of subcircuit definition.

** Library name: sclib_rvt
** Cell name: sc_invx4r
** View name: schematic

.subckt sc_invx4r a y inh_vdd inh_vss
XP0 y a inh_vdd inh_vdd pch_mac l=40n w=2.64u multi=1 nf=4 sd=160.0n ad=2.112e-13 as=2.904e-13 pd=3.28u ps=4.84u nrd=0.019965 nrs=0.019965 sa=309.7800n sb=309.7800n sca=10.2911 scb=0.00915362 scc=0.000801174 sa1=217.49500n sa2=295.52600n sa3=447.84900n sa4=301.56200n sb1=217.49500n sb2=295.52600n sb3=447.84900n spa=169.42700n spa1=169.15200n spa2=167.14600n spa3=167.93300n sap=213.44600n spba=191.30700n spba1=193.11400n enx=1.47532u enx1=1.46621u eny=328.42100n eny1=214.58900n eny2=305.23500n rex=4.50641u rey=921.12900n dfm_flag=0 sapb=245.13100n sa5=337.83200n sa6=438.67900n sodx=140.0n sodx1=304.44100n sodx2=947.8700n sody=711.5400n
XN0 y a inh_vss inh_vss nch_mac l=40n w=1.32u multi=1 nf=4 sd=160.0n ad=1.056e-13 as=1.452e-13 pd=1.96u ps=2.86u nrd=0.026879 nrs=0.026879 sa=309.7800n sb=309.7800n sca=2.73049 scb=0.000664286 scc=1.04238e-06 sa1=217.49500n sa2=295.52600n sa3=447.84900n sa4=301.56200n sb1=217.49500n sb2=295.52600n sb3=447.84900n spa=169.42700n spa1=169.15200n spa2=167.14600n spa3=167.93300n sap=213.44600n spba=191.30700n spba1=193.11400n enx=2.28388u enx1=2.27814u eny=977.48100n eny1=797.90800n eny2=967.61900n rex=4.28079u rey=1.83014u dfm_flag=0 sapb=245.13100n sa5=337.83200n sa6=438.67900n sodx=140.0n sodx1=304.44100n sodx2=947.8700n sody=901.74200n
.ends sc_invx4r
** End of subcircuit definition.

** Library name: sclib_rvt
** Cell name: sc_invx96r
** View name: schematic

.subckt sc_invx96r a y inh_vdd inh_vss
XN0 y a inh_vss inh_vss nch_mac l=40n w=31.680u multi=1 nf=96 sd=160.0n ad=2.5344e-12 as=2.574e-12 pd=47.040u ps=47.940u nrd=0.001300 nrs=0.001300 sa=3.45041u sb=3.45041u sca=2.31943 scb=0.000664272 scc=1.04238e-06 sa1=632.91500n sa2=1.69248u sa3=1.71443u sa4=3.32594u sb1=632.91500n sb2=1.69248u sb3=1.71443u spa=160.38600n spa1=160.37100n spa2=160.27400n spa3=160.31100n sap=455.79500n spba=181.46200n spba1=183.26500n enx=8.93285u enx1=7.97751u eny=977.48100n eny1=797.90800n eny2=967.61900n rex=8.00925u rey=1.83014u dfm_flag=0 sapb=421.88300n sa5=3.89472u sa6=1.63575u sodx=140.0n sodx1=1.3097u sodx2=2.24258u sody=901.74200n
XP0 y a inh_vdd inh_vdd pch_mac l=40n w=63.360u multi=1 nf=96 sd=160.0n ad=5.0688e-12 as=5.148e-12 pd=78.720u ps=80.280u nrd=0.000966 nrs=0.000966 sa=3.45041u sb=3.45041u sca=9.25666 scb=0.0091425 scc=0.000801174 sa1=632.91500n sa2=1.69248u sa3=1.71443u sa4=3.32594u sb1=632.91500n sb2=1.69248u sb3=1.71443u spa=160.38600n spa1=160.37100n spa2=160.27400n spa3=160.31100n sap=455.79500n spba=181.46200n spba1=183.26500n enx=7.7392u enx1=6.59005u eny=328.42100n eny1=214.58900n eny2=305.23500n rex=9.551u rey=921.12900n dfm_flag=0 sapb=421.88300n sa5=3.89472u sa6=1.63575u sodx=140.0n sodx1=1.3097u sodx2=2.24258u sody=711.5400n
.ends sc_invx96r
** End of subcircuit definition.

** Library name: sclib_rvt
** Cell name: sc_invx20r
** View name: schematic

.subckt sc_invx20r a y inh_vdd inh_vss
XN0 y a inh_vss inh_vss nch_mac l=40n w=6.6u multi=1 nf=20 sd=160.0n ad=5.28e-13 as=5.676e-13 pd=9.8u ps=10.70u nrd=0.006079 nrs=0.006079 sa=986.10400n sb=986.10400n sca=2.47556 scb=0.000664274 scc=1.04238e-06 sa1=373.62300n sa2=739.82300n sa3=972.17800n sa4=948.90900n sb1=373.62300n sb2=739.82300n sb3=972.17800n spa=161.85700n spa1=161.7900n spa2=161.33500n spa3=161.50600n sap=303.80700n spba=182.85700n spba1=184.66200n enx=3.6282u enx1=3.53155u eny=977.48100n eny1=797.90800n eny2=967.61900n rex=5.32941u rey=1.83014u dfm_flag=0 sapb=313.47300n sa5=1.11825u sa6=932.06900n sodx=140.0n sodx1=595.88400n sodx2=1.43537u sody=901.74200n
XP0 y a inh_vdd inh_vdd pch_mac l=40n w=13.20u multi=1 nf=20 sd=160.0n ad=1.056e-12 as=1.1352e-12 pd=16.40u ps=17.960u nrd=0.004515 nrs=0.004515 sa=986.10400n sb=986.10400n sca=9.57767 scb=0.00914434 scc=0.000801174 sa1=373.62300n sa2=739.82300n sa3=972.17800n sa4=948.90900n sb1=373.62300n sb2=739.82300n sb3=972.17800n spa=161.85700n spa1=161.7900n spa2=161.33500n spa3=161.50600n sap=303.80700n spba=182.85700n spba1=184.66200n enx=2.74175u enx1=2.61013u eny=328.42100n eny1=214.58900n eny2=305.23500n rex=6.01163u rey=921.12900n dfm_flag=0 sapb=313.47300n sa5=1.11825u sa6=932.06900n sodx=140.0n sodx1=595.88400n sodx2=1.43537u sody=711.5400n
.ends sc_invx20r
** End of subcircuit definition.

** Library name: rbbasic
** Cell name: cxfr
** View name: schematic

.subckt cxfr D GN GP S inh_vdd inh_vss nl=40n nw=140n nf=1 pl=40n pw=140n pf=1
XM1 S GN D inh_vss nch_mac l=nl w='nw*nf' multi=1 nf=nf sd=160.0n ad='((nf-int(nf/2)*2)*((140e-9+((nf-1)*160e-9)/2)+0)+((nf+1)-int((nf+1)/2)*2)*((nf/2)*160e-9))*nw' as='((nf-int(nf/2)*2)*((140e-9+((nf-1)*160e-9)/2)+0)+((nf+1)-int((nf+1)/2)*2)*(((280e-9+(nf/2-1)*160e-9)+0)+0))*nw' pd='(nf-int(nf/2)*2)*(((140e-9+((nf-1)*160e-9)/2)+0)*2+(nf+1)*nw)+((nf+1)-int((nf+1)/2)*2)*(((nf/2)*160e-9)*2+nf*nw)' ps='(nf-int(nf/2)*2)*(((140e-9+((nf-1)*160e-9)/2)+0)*2+(nf+1)*nw)+((nf+1)-int((nf+1)/2)*2)*((((280e-9+(nf/2-1)*160e-9)+0)+0)*2+(nf+2)*nw)' sca='((((1e-12/nl)*((0+(1/(2e-6+0*(nl+160e-9))-1/((2e-6+0*(nl+160e-9))+nl)))+(1/(2e-6+0*(nl+160e-9))-1/((2e-6+0*(nl+160e-9))+nl))))/1.0+(1e-12/nw)*(505.050505050505e3-1/(1.98e-6+nw)))+(1e-12/nw)*(1.5625e6-1/(640e-9+nw)))/810e-3'
+scb='(((0+(1/nl)*(((2e-6+0*(nl+160e-9))/10.0+11.1111e-9)*exp((2e-6+0*(nl+160e-9))*(-9e6))-(((2e-6+0*(nl+160e-9))+nl)/10.0+11.1111e-9)*exp(((2e-6+0*(nl+160e-9))+nl)*(-9e6))))+(1/nl)*(((2e-6+0*(nl+160e-9))/10.0+11.1111e-9)*exp((2e-6+0*(nl+160e-9))*(-9e6))-(((2e-6+0*(nl+160e-9))+nl)/10.0+11.1111e-9)*exp(((2e-6+0*(nl+160e-9))+nl)*(-9e6))))/1.0+(1/nw)*(75.1111e-9*exp(-5.76)-((640e-9+nw)/10.0+11.1111e-9)*exp((640e-9+nw)*(-9e6))))+(1/nw)*(209.1111e-9*exp(-17.82)-((1.98e-6+nw)/10.0+11.1111e-9)*exp((1.98e-6+nw)*(-9e6)))'
+scc='(((1/nl)*((((0+((2e-6+0*(nl+160e-9))/20.0+2.77778e-9)*exp((2e-6+0*(nl+160e-9))*(-18e6)))-(((2e-6+0*(nl+160e-9))+nl)/20.0+2.77778e-9)*exp(((2e-6+0*(nl+160e-9))+nl)*(-18e6)))+((2e-6+0*(nl+160e-9))/20.0+2.77778e-9)*exp((2e-6+0*(nl+160e-9))*(-18e6)))-(((2e-6+0*(nl+160e-9))+nl)/20.0+2.77778e-9)*exp(((2e-6+0*(nl+160e-9))+nl)*(-18e6))))/1.0+(1/nw)*(34.77778e-9*exp(-11.52)-((640e-9+nw)/20.0+2.77778e-9)*exp((640e-9+nw)*(-18e6))))+(1/nw)*(101.77778e-9*exp(-35.64)-((1.98e-6+nw)/20.0+2.77778e-9)*exp((1.98e-6+nw)*(-18e6)))' dfm_flag=0
XM0 S GP D inh_vdd pch_mac l=pl w='pw*pf' multi=1 nf=pf sd=160.0n ad='((pf-int(pf/2)*2)*((140e-9+((pf-1)*160e-9)/2)+0)+((pf+1)-int((pf+1)/2)*2)*((pf/2)*160e-9))*pw' as='((pf-int(pf/2)*2)*((140e-9+((pf-1)*160e-9)/2)+0)+((pf+1)-int((pf+1)/2)*2)*(((280e-9+(pf/2-1)*160e-9)+0)+0))*pw' pd='(pf-int(pf/2)*2)*(((140e-9+((pf-1)*160e-9)/2)+0)*2+(pf+1)*pw)+((pf+1)-int((pf+1)/2)*2)*(((pf/2)*160e-9)*2+pf*pw)' ps='(pf-int(pf/2)*2)*(((140e-9+((pf-1)*160e-9)/2)+0)*2+(pf+1)*pw)+((pf+1)-int((pf+1)/2)*2)*((((280e-9+(pf/2-1)*160e-9)+0)+0)*2+(pf+2)*pw)' sca='((((1e-12/pl)*((0+(1/(1.2e-6+0*(pl+160e-9))-1/((1.2e-6+0*(pl+160e-9))+pl)))+(1/(1.2e-6+0*(pl+160e-9))-1/((1.2e-6+0*(pl+160e-9))+pl))))/1.0+(1e-12/pw)*(5.88235294117647e6-1/(170e-9+pw)))+(1e-12/pw)*(684.931506849315e3-1/(1.46e-6+pw)))/810e-3'
+scb='(((0+(1/pl)*(((1.2e-6+0*(pl+160e-9))/10.0+11.1111e-9)*exp((1.2e-6+0*(pl+160e-9))*(-9e6))-(((1.2e-6+0*(pl+160e-9))+pl)/10.0+11.1111e-9)*exp(((1.2e-6+0*(pl+160e-9))+pl)*(-9e6))))+(1/pl)*(((1.2e-6+0*(pl+160e-9))/10.0+11.1111e-9)*exp((1.2e-6+0*(pl+160e-9))*(-9e6))-(((1.2e-6+0*(pl+160e-9))+pl)/10.0+11.1111e-9)*exp(((1.2e-6+0*(pl+160e-9))+pl)*(-9e6))))/1.0+(1/pw)*(157.1111e-9*exp(-13.14)-((1.46e-6+pw)/10.0+11.1111e-9)*exp((1.46e-6+pw)*(-9e6))))+(1/pw)*(28.1111e-9*exp(-1.53)-((170e-9+pw)/10.0+11.1111e-9)*exp((170e-9+pw)*(-9e6)))'
+scc='(((1/pl)*((((0+((1.2e-6+0*(pl+160e-9))/20.0+2.77778e-9)*exp((1.2e-6+0*(pl+160e-9))*(-18e6)))-(((1.2e-6+0*(pl+160e-9))+pl)/20.0+2.77778e-9)*exp(((1.2e-6+0*(pl+160e-9))+pl)*(-18e6)))+((1.2e-6+0*(pl+160e-9))/20.0+2.77778e-9)*exp((1.2e-6+0*(pl+160e-9))*(-18e6)))-(((1.2e-6+0*(pl+160e-9))+pl)/20.0+2.77778e-9)*exp(((1.2e-6+0*(pl+160e-9))+pl)*(-18e6))))/1.0+(1/pw)*(75.77778e-9*exp(-26.28)-((1.46e-6+pw)/20.0+2.77778e-9)*exp((1.46e-6+pw)*(-18e6))))+(1/pw)*(11.27778e-9*exp(-3.06)-((170e-9+pw)/20.0+2.77778e-9)*exp((170e-9+pw)*(-18e6)))' dfm_flag=0
.ends cxfr
** End of subcircuit definition.

** Library name: io
** Cell name: switch_12_import
** View name: schematic

.subckt switch_12_import clk clkb in out pvdd inh_vss
XM0 out clk in inh_vss nch_12_mac l=70n w=2.4u multi=1 nf=4 sd=160.0n ad=1.92e-13 as=2.64e-13 pd=3.04u ps=4.48u nrd=0.012218 nrs=0.012218 sa=331.492n sb=331.492n sa1=220.515n sa2=312.483n sa3=477.658n sa4=315.144n sb1=220.515n sb2=312.483n sb3=477.658n spa=169.427n spa1=169.152n spa2=167.186n spa3=168.066n sap=217.368n spba=202.288n spba1=205.319n dfm_flag=0 sapb=244.426n
XM1 out clkb in pvdd pch_12_mac l=70n w=4.8u multi=1 nf=8 sd=160.0n ad=3.84e-13 as=4.56e-13 pd=6.08u ps=7.52u nrd=0.009782 nrs=0.009782 sa=545.317n sb=545.317n sa1=279.161n sa2=472.77n sa3=691.591n sa4=511.925n sb1=279.161n sb2=472.77n sb3=691.591n spa=164.669n spa1=164.513n spa2=163.442n spa3=163.91n sap=251.492n spba=198.962n spba1=201.956n dfm_flag=0 sapb=276.979n
.ends switch_12_import
** End of subcircuit definition.

** Library name: sclib_12
** Cell name: sc_invx1_12
** View name: schematic

.subckt sc_invx1_12 a y inh_vdd inh_vss
XM8 y a inh_vss inh_vss nch_12_mac l=70n w=330.0n multi=1 nf=1 sd=160.0n ad=4.62e-14 as=4.62e-14 pd=940.0n ps=940.0n nrd=0.074972 nrs=0.074972 sa=140.0n sb=140.0n sa1=140.0n sa2=140.0n sa3=140.0n sa4=140.0n sb1=140.0n sb2=140.0n sb3=140.0n spa=200n spa1=200n spa2=200n spa3=200n sap=178.708n spba=886.9n spba1=887.7n dfm_flag=0 sapb=1.668u
XM5 y a inh_vdd inh_vdd pch_12_mac l=70n w=660.0n multi=1 nf=1 sd=160.0n ad=9.24e-14 as=9.24e-14 pd=1.6u ps=1.6u nrd=0.055711 nrs=0.055711 sa=140.0n sb=140.0n sa1=140.0n sa2=140.0n sa3=140.0n sa4=140.0n sb1=140.0n sb2=140.0n sb3=140.0n spa=200n spa1=200n spa2=200n spa3=200n sap=178.708n spba=886.9n spba1=887.7n dfm_flag=0 sapb=1.668u
.ends sc_invx1_12
** End of subcircuit definition.

** Library name: io
** Cell name: ana_mux_import
** View name: schematic

.subckt ana_mux_import a b out pvdd sa inh_vss
XI1 selb sela b out pvdd inh_vss switch_12_import
XI0 sela selb a out pvdd inh_vss switch_12_import
XU1 selb sela pvdd inh_vss sc_invx1_12
XU0 sa selb pvdd inh_vss sc_invx1_12
.ends ana_mux_import
** End of subcircuit definition.

** Library name: ana
** Cell name: vrefgen_error_in_dec
** View name: schematic

.subckt vrefgen_error_in_dec d0 d1 d10 d11 d12 d13 d14 d15 d2 d3 d4 d5 d6 d7 d8 d9 out pvdd s0 s1 s2 s3 inh_vss
XI14 net50 net031 out pvdd s3 inh_vss ana_mux_import
XI13 net44 net43 net031 pvdd s2 inh_vss ana_mux_import
XI12 net46 net45 net50 pvdd s2 inh_vss ana_mux_import
XI11 net32 net31 net43 pvdd s1 inh_vss ana_mux_import
XI10 net34 net33 net44 pvdd s1 inh_vss ana_mux_import
XI9 net36 net35 net45 pvdd s1 inh_vss ana_mux_import
XI8 net38 net37 net46 pvdd s1 inh_vss ana_mux_import
XI7 d7 d6 net34 pvdd s0 inh_vss ana_mux_import
XI6 d3 d2 net32 pvdd s0 inh_vss ana_mux_import
XI5 d1 d0 net31 pvdd s0 inh_vss ana_mux_import
XI4 d5 d4 net33 pvdd s0 inh_vss ana_mux_import
XI3 d11 d10 net36 pvdd s0 inh_vss ana_mux_import
XI2 d9 d8 net35 pvdd s0 inh_vss ana_mux_import
XI1 d13 d12 net37 pvdd s0 inh_vss ana_mux_import
XI0 d15 d14 net38 pvdd s0 inh_vss ana_mux_import
.ends vrefgen_error_in_dec
** End of subcircuit definition.

** Library name: sclib_rvt
** Cell name: sc_invx1r
** View name: schematic

.subckt sc_invx1r a y inh_vdd inh_vss
XN0 y a inh_vss inh_vss nch_mac l=40n w=330.0n multi=1 nf=1 sd=160.0n ad=4.62e-14 as=4.62e-14 pd=940.0n ps=940.0n nrd=0.074972 nrs=0.074972 sa=140.0n sb=140.0n sca=2.86377 scb=0.000664318 scc=1.04238e-06 sa1=140.0n sa2=140.0n sa3=140.0n sa4=140.0n sb1=140.0n sb2=140.0n sb3=140.0n spa=200n spa1=200n spa2=200n spa3=200n sap=178.70800n spba=221.26900n spba1=223.10500n enx=2u enx1=2u eny=977.48100n eny1=797.90800n eny2=967.61900n rex=4.0111u rey=1.83014u dfm_flag=0 sapb=210.88900n sa5=140.0n sa6=140.0n sodx=140.0n sodx1=206.67400n sodx2=831.18300n sody=901.74200n
XP0 y a inh_vdd inh_vdd pch_mac l=40n w=660.0n multi=1 nf=1 sd=160.0n ad=9.24e-14 as=9.24e-14 pd=1.6u ps=1.6u nrd=0.055711 nrs=0.055711 sa=140.0n sb=140.0n sca=10.8078 scb=0.0091796 scc=0.000801174 sa1=140.0n sa2=140.0n sa3=140.0n sa4=140.0n sb1=140.0n sb2=140.0n sb3=140.0n spa=200n spa1=200n spa2=200n spa3=200n sap=178.70800n spba=221.26900n spba1=223.10500n enx=1.2u enx1=1.2u eny=328.42100n eny1=214.58900n eny2=305.23500n rex=4.07718u rey=921.12900n dfm_flag=0 sapb=210.88900n sa5=140.0n sa6=140.0n sodx=140.0n sodx1=206.67400n sodx2=831.18300n sody=711.5400n
.ends sc_invx1r
** End of subcircuit definition.

** Library name: ana
** Cell name: ls_12
** View name: schematic

.subckt ls_12 d pvdd q qb vreg inh_vss
XM1 net06 net8 pvdd pvdd pch_12_mac l=70n w=800n multi=1 nf=2 sd=160.0n ad=6.4e-14 as=1.12e-13 pd=1.12u ps=2.16u nrd=0.037591 nrs=0.037591 sa=209.397n sb=209.397n sa1=174.687n sa2=205.977n sa3=286.184n sa4=203.362n sb1=174.687n sb2=205.977n sb3=286.184n spa=179.221n spa1=178.832n spa2=175.794n spa3=177.223n sap=192.81n spba=210.358n spba1=213.47n dfm_flag=0 sapb=217.823n
XM0 net8 net06 pvdd pvdd pch_12_mac l=70n w=800n multi=1 nf=2 sd=160.0n ad=6.4e-14 as=1.12e-13 pd=1.12u ps=2.16u nrd=0.037591 nrs=0.037591 sa=209.397n sb=209.397n sa1=174.687n sa2=205.977n sa3=286.184n sa4=203.362n sb1=174.687n sb2=205.977n sb3=286.184n spa=179.221n spa1=178.832n spa2=175.794n spa3=177.223n sap=192.81n spba=210.358n spba1=213.47n dfm_flag=0 sapb=217.823n
XM3 net06 dbb inh_vss inh_vss nch_12_mac l=70n w=2u multi=1 nf=2 sd=160.0n ad=1.6e-13 as=2.8e-13 pd=2.32u ps=4.56u nrd=0.011617 nrs=0.011617 sa=209.397n sb=209.397n sa1=174.687n sa2=205.977n sa3=286.184n sa4=203.362n sb1=174.687n sb2=205.977n sb3=286.184n spa=179.221n spa1=178.832n spa2=175.794n spa3=177.223n sap=192.81n spba=210.358n spba1=213.47n dfm_flag=0 sapb=217.823n
XM2 net8 db inh_vss inh_vss nch_12_mac l=70n w=2u multi=1 nf=2 sd=160.0n ad=1.6e-13 as=2.8e-13 pd=2.32u ps=4.56u nrd=0.011617 nrs=0.011617 sa=209.397n sb=209.397n sa1=174.687n sa2=205.977n sa3=286.184n sa4=203.362n sb1=174.687n sb2=205.977n sb3=286.184n spa=179.221n spa1=178.832n spa2=175.794n spa3=177.223n sap=192.81n spba=210.358n spba1=213.47n dfm_flag=0 sapb=217.823n
XU1 d db vreg inh_vss sc_invx1r
XU2 db dbb vreg inh_vss sc_invx1r
XU5 net06 q pvdd inh_vss sc_invx1_12
XU3 net8 qb pvdd inh_vss sc_invx1_12
.ends ls_12
** End of subcircuit definition.

** Library name: sclib_12
** Cell name: sc_invx4_12
** View name: schematic

.subckt sc_invx4_12 a y inh_vdd inh_vss
XM8 y a inh_vss inh_vss nch_12_mac l=70n w=1.32u multi=1 nf=4 sd=160.0n ad=1.056e-13 as=1.452e-13 pd=1.96u ps=2.86u nrd=0.026879 nrs=0.026879 sa=331.492n sb=331.492n sa1=220.515n sa2=312.483n sa3=477.658n sa4=315.144n sb1=220.515n sb2=312.483n sb3=477.658n spa=169.427n spa1=169.152n spa2=167.186n spa3=168.066n sap=217.368n spba=210.3n spba1=213.4n dfm_flag=0 sapb=323n
XM5 y a inh_vdd inh_vdd pch_12_mac l=70n w=2.64u multi=1 nf=4 sd=160.0n ad=2.112e-13 as=2.904e-13 pd=3.28u ps=4.84u nrd=0.019965 nrs=0.019965 sa=331.492n sb=331.492n sa1=220.515n sa2=312.483n sa3=477.658n sa4=315.144n sb1=220.515n sb2=312.483n sb3=477.658n spa=169.427n spa1=169.152n spa2=167.186n spa3=168.066n sap=217.368n spba=210.3n spba1=213.4n dfm_flag=0 sapb=323n
.ends sc_invx4_12
** End of subcircuit definition.

** Library name: sclib_12
** Cell name: sc_invx16_12
** View name: schematic

.subckt sc_invx16_12 a y inh_vdd inh_vss
XM8 y a inh_vss inh_vss nch_12_mac l=70n w=5.28u multi=1 nf=16 sd=160.0n ad=4.224e-13 as=4.62e-13 pd=7.84u ps=8.74u nrd=0.007538 nrs=0.007538 sa=921.475n sb=921.475n sa1=353.378n sa2=702.745n sa3=930.644n sa4=860.283n sb1=353.378n sb2=702.745n sb3=930.644n spa=162.323n spa1=162.241n spa2=161.686n spa3=161.926n sap=295.864n spba=199n spba1=201.9n dfm_flag=0 sapb=370.7n
XM5 y a inh_vdd inh_vdd pch_12_mac l=70n w=8.96u multi=1 nf=16 sd=160.0n ad=7.168e-13 as=7.84e-13 pd=11.52u ps=12.88u nrd=0.004750 nrs=0.004750 sa=921.475n sb=921.475n sa1=353.378n sa2=702.745n sa3=930.644n sa4=860.283n sb1=353.378n sb2=702.745n sb3=930.644n spa=162.323n spa1=162.241n spa2=161.686n spa3=161.926n sap=295.864n spba=199n spba1=201.9n dfm_flag=0 sapb=370.7n
.ends sc_invx16_12
** End of subcircuit definition.

** Library name: ana
** Cell name: vrefgen_error_in
** View name: schematic

.subckt vrefgen_error_in da_0 da_1 da_2 da_3 out powerdown pvdd vreg inh_vss
XXR2 a15 a14 inh_vss rppolywo_m lr=1u wr=1u multi=1 m=1

XXR3 a14 a13 inh_vss rppolywo_m lr=1u wr=1u multi=1 m=1

XXR4 a13 a12 inh_vss rppolywo_m lr=1u wr=1u multi=1 m=1

XXR5 a12 a11 inh_vss rppolywo_m lr=1u wr=1u multi=1 m=1

XXR6 a11 a10 inh_vss rppolywo_m lr=1u wr=1u multi=1 m=1

XXR7 a10 a9 inh_vss rppolywo_m lr=1u wr=1u multi=1 m=1

XXR8 a9 a8 inh_vss rppolywo_m lr=1u wr=1u multi=1 m=1

XXR9 a8 a7 inh_vss rppolywo_m lr=1u wr=1u multi=1 m=1

XXR10 a4 a3 inh_vss rppolywo_m lr=1u wr=1u multi=1 m=1

XXR11 a5 a4 inh_vss rppolywo_m lr=1u wr=1u multi=1 m=1

XXR12 a6 a5 inh_vss rppolywo_m lr=1u wr=1u multi=1 m=1

XXR13 a7 a6 inh_vss rppolywo_m lr=1u wr=1u multi=1 m=1

XXR14 a3 a2 inh_vss rppolywo_m lr=1u wr=1u multi=1 m=1

XXR15 a2 a1 inh_vss rppolywo_m lr=1u wr=1u multi=1 m=1

XXR16 a1 a0 inh_vss rppolywo_m lr=1u wr=1u multi=1 m=1

**Series configuration of R1
XXR1_1__dmy0 net019 XR1_1__dmy0 inh_vss rppolywo_m lr=1.04u wr=1u multi=1 m=1
XXR1_2__dmy0 XR1_1__dmy0 XR1_2__dmy0 inh_vss rppolywo_m lr=1.04u wr=1u multi=1 m=1
XXR1_3__dmy0 XR1_2__dmy0 XR1_3__dmy0 inh_vss rppolywo_m lr=1.04u wr=1u multi=1 m=1
XXR1_4__dmy0 XR1_3__dmy0 XR1_4__dmy0 inh_vss rppolywo_m lr=1.04u wr=1u multi=1 m=1
XXR1_5__dmy0 XR1_4__dmy0 XR1_5__dmy0 inh_vss rppolywo_m lr=1.04u wr=1u multi=1 m=1
XXR1_6__dmy0 XR1_5__dmy0 XR1_6__dmy0 inh_vss rppolywo_m lr=1.04u wr=1u multi=1 m=1
XXR1_7__dmy0 XR1_6__dmy0 XR1_7__dmy0 inh_vss rppolywo_m lr=1.04u wr=1u multi=1 m=1
XXR1_8__dmy0 XR1_7__dmy0 XR1_8__dmy0 inh_vss rppolywo_m lr=1.04u wr=1u multi=1 m=1
XXR1_9__dmy0 XR1_8__dmy0 XR1_9__dmy0 inh_vss rppolywo_m lr=1.04u wr=1u multi=1 m=1
XXR1_10__dmy0 XR1_9__dmy0 XR1_10__dmy0 inh_vss rppolywo_m lr=1.04u wr=1u multi=1 m=1
XXR1_11__dmy0 XR1_10__dmy0 XR1_11__dmy0 inh_vss rppolywo_m lr=1.04u wr=1u multi=1 m=1
XXR1_12__dmy0 XR1_11__dmy0 XR1_12__dmy0 inh_vss rppolywo_m lr=1.04u wr=1u multi=1 m=1
XXR1_13__dmy0 XR1_12__dmy0 XR1_13__dmy0 inh_vss rppolywo_m lr=1.04u wr=1u multi=1 m=1
XXR1_14__dmy0 XR1_13__dmy0 XR1_14__dmy0 inh_vss rppolywo_m lr=1.04u wr=1u multi=1 m=1
XXR1_15__dmy0 XR1_14__dmy0 XR1_15__dmy0 inh_vss rppolywo_m lr=1.04u wr=1u multi=1 m=1
XXR1_16__dmy0 XR1_15__dmy0 XR1_16__dmy0 inh_vss rppolywo_m lr=1.04u wr=1u multi=1 m=1
XXR1_17__dmy0 XR1_16__dmy0 XR1_17__dmy0 inh_vss rppolywo_m lr=1.04u wr=1u multi=1 m=1
XXR1_18__dmy0 XR1_17__dmy0 XR1_18__dmy0 inh_vss rppolywo_m lr=1.04u wr=1u multi=1 m=1
XXR1_19__dmy0 XR1_18__dmy0 a15 inh_vss rppolywo_m lr=1.04u wr=1u multi=1 m=1
**End of R1

**Series configuration of R0
XXR0_1__dmy0 a0 XR0_1__dmy0 inh_vss rppolywo_m lr=1.005u wr=1u multi=1 m=1
XXR0_2__dmy0 XR0_1__dmy0 XR0_2__dmy0 inh_vss rppolywo_m lr=1.005u wr=1u multi=1 m=1
XXR0_3__dmy0 XR0_2__dmy0 XR0_3__dmy0 inh_vss rppolywo_m lr=1.005u wr=1u multi=1 m=1
XXR0_4__dmy0 XR0_3__dmy0 XR0_4__dmy0 inh_vss rppolywo_m lr=1.005u wr=1u multi=1 m=1
XXR0_5__dmy0 XR0_4__dmy0 XR0_5__dmy0 inh_vss rppolywo_m lr=1.005u wr=1u multi=1 m=1
XXR0_6__dmy0 XR0_5__dmy0 XR0_6__dmy0 inh_vss rppolywo_m lr=1.005u wr=1u multi=1 m=1
XXR0_7__dmy0 XR0_6__dmy0 XR0_7__dmy0 inh_vss rppolywo_m lr=1.005u wr=1u multi=1 m=1
XXR0_8__dmy0 XR0_7__dmy0 XR0_8__dmy0 inh_vss rppolywo_m lr=1.005u wr=1u multi=1 m=1
XXR0_9__dmy0 XR0_8__dmy0 XR0_9__dmy0 inh_vss rppolywo_m lr=1.005u wr=1u multi=1 m=1
XXR0_10__dmy0 XR0_9__dmy0 XR0_10__dmy0 inh_vss rppolywo_m lr=1.005u wr=1u multi=1 m=1
XXR0_11__dmy0 XR0_10__dmy0 XR0_11__dmy0 inh_vss rppolywo_m lr=1.005u wr=1u multi=1 m=1
XXR0_12__dmy0 XR0_11__dmy0 XR0_12__dmy0 inh_vss rppolywo_m lr=1.005u wr=1u multi=1 m=1
XXR0_13__dmy0 XR0_12__dmy0 XR0_13__dmy0 inh_vss rppolywo_m lr=1.005u wr=1u multi=1 m=1
XXR0_14__dmy0 XR0_13__dmy0 XR0_14__dmy0 inh_vss rppolywo_m lr=1.005u wr=1u multi=1 m=1
XXR0_15__dmy0 XR0_14__dmy0 XR0_15__dmy0 inh_vss rppolywo_m lr=1.005u wr=1u multi=1 m=1
XXR0_16__dmy0 XR0_15__dmy0 XR0_16__dmy0 inh_vss rppolywo_m lr=1.005u wr=1u multi=1 m=1
XXR0_17__dmy0 XR0_16__dmy0 XR0_17__dmy0 inh_vss rppolywo_m lr=1.005u wr=1u multi=1 m=1
XXR0_18__dmy0 XR0_17__dmy0 XR0_18__dmy0 inh_vss rppolywo_m lr=1.005u wr=1u multi=1 m=1
XXR0_19__dmy0 XR0_18__dmy0 XR0_19__dmy0 inh_vss rppolywo_m lr=1.005u wr=1u multi=1 m=1
XXR0_20__dmy0 XR0_19__dmy0 XR0_20__dmy0 inh_vss rppolywo_m lr=1.005u wr=1u multi=1 m=1
XXR0_21__dmy0 XR0_20__dmy0 XR0_21__dmy0 inh_vss rppolywo_m lr=1.005u wr=1u multi=1 m=1
XXR0_22__dmy0 XR0_21__dmy0 XR0_22__dmy0 inh_vss rppolywo_m lr=1.005u wr=1u multi=1 m=1
XXR0_23__dmy0 XR0_22__dmy0 XR0_23__dmy0 inh_vss rppolywo_m lr=1.005u wr=1u multi=1 m=1
XXR0_24__dmy0 XR0_23__dmy0 XR0_24__dmy0 inh_vss rppolywo_m lr=1.005u wr=1u multi=1 m=1
XXR0_25__dmy0 XR0_24__dmy0 XR0_25__dmy0 inh_vss rppolywo_m lr=1.005u wr=1u multi=1 m=1
XXR0_26__dmy0 XR0_25__dmy0 XR0_26__dmy0 inh_vss rppolywo_m lr=1.005u wr=1u multi=1 m=1
XXR0_27__dmy0 XR0_26__dmy0 XR0_27__dmy0 inh_vss rppolywo_m lr=1.005u wr=1u multi=1 m=1
XXR0_28__dmy0 XR0_27__dmy0 XR0_28__dmy0 inh_vss rppolywo_m lr=1.005u wr=1u multi=1 m=1
XXR0_29__dmy0 XR0_28__dmy0 XR0_29__dmy0 inh_vss rppolywo_m lr=1.005u wr=1u multi=1 m=1
XXR0_30__dmy0 XR0_29__dmy0 XR0_30__dmy0 inh_vss rppolywo_m lr=1.005u wr=1u multi=1 m=1
XXR0_31__dmy0 XR0_30__dmy0 XR0_31__dmy0 inh_vss rppolywo_m lr=1.005u wr=1u multi=1 m=1
XXR0_32__dmy0 XR0_31__dmy0 XR0_32__dmy0 inh_vss rppolywo_m lr=1.005u wr=1u multi=1 m=1
XXR0_33__dmy0 XR0_32__dmy0 XR0_33__dmy0 inh_vss rppolywo_m lr=1.005u wr=1u multi=1 m=1
XXR0_34__dmy0 XR0_33__dmy0 XR0_34__dmy0 inh_vss rppolywo_m lr=1.005u wr=1u multi=1 m=1
XXR0_35__dmy0 XR0_34__dmy0 XR0_35__dmy0 inh_vss rppolywo_m lr=1.005u wr=1u multi=1 m=1
XXR0_36__dmy0 XR0_35__dmy0 XR0_36__dmy0 inh_vss rppolywo_m lr=1.005u wr=1u multi=1 m=1
XXR0_37__dmy0 XR0_36__dmy0 XR0_37__dmy0 inh_vss rppolywo_m lr=1.005u wr=1u multi=1 m=1
XXR0_38__dmy0 XR0_37__dmy0 XR0_38__dmy0 inh_vss rppolywo_m lr=1.005u wr=1u multi=1 m=1
XXR0_39__dmy0 XR0_38__dmy0 XR0_39__dmy0 inh_vss rppolywo_m lr=1.005u wr=1u multi=1 m=1
XXR0_40__dmy0 XR0_39__dmy0 XR0_40__dmy0 inh_vss rppolywo_m lr=1.005u wr=1u multi=1 m=1
XXR0_41__dmy0 XR0_40__dmy0 XR0_41__dmy0 inh_vss rppolywo_m lr=1.005u wr=1u multi=1 m=1
XXR0_42__dmy0 XR0_41__dmy0 XR0_42__dmy0 inh_vss rppolywo_m lr=1.005u wr=1u multi=1 m=1
XXR0_43__dmy0 XR0_42__dmy0 XR0_43__dmy0 inh_vss rppolywo_m lr=1.005u wr=1u multi=1 m=1
XXR0_44__dmy0 XR0_43__dmy0 XR0_44__dmy0 inh_vss rppolywo_m lr=1.005u wr=1u multi=1 m=1
XXR0_45__dmy0 XR0_44__dmy0 XR0_45__dmy0 inh_vss rppolywo_m lr=1.005u wr=1u multi=1 m=1
XXR0_46__dmy0 XR0_45__dmy0 XR0_46__dmy0 inh_vss rppolywo_m lr=1.005u wr=1u multi=1 m=1
XXR0_47__dmy0 XR0_46__dmy0 XR0_47__dmy0 inh_vss rppolywo_m lr=1.005u wr=1u multi=1 m=1
XXR0_48__dmy0 XR0_47__dmy0 XR0_48__dmy0 inh_vss rppolywo_m lr=1.005u wr=1u multi=1 m=1
XXR0_49__dmy0 XR0_48__dmy0 XR0_49__dmy0 inh_vss rppolywo_m lr=1.005u wr=1u multi=1 m=1
XXR0_50__dmy0 XR0_49__dmy0 XR0_50__dmy0 inh_vss rppolywo_m lr=1.005u wr=1u multi=1 m=1
XXR0_51__dmy0 XR0_50__dmy0 XR0_51__dmy0 inh_vss rppolywo_m lr=1.005u wr=1u multi=1 m=1
XXR0_52__dmy0 XR0_51__dmy0 XR0_52__dmy0 inh_vss rppolywo_m lr=1.005u wr=1u multi=1 m=1
XXR0_53__dmy0 XR0_52__dmy0 XR0_53__dmy0 inh_vss rppolywo_m lr=1.005u wr=1u multi=1 m=1
XXR0_54__dmy0 XR0_53__dmy0 XR0_54__dmy0 inh_vss rppolywo_m lr=1.005u wr=1u multi=1 m=1
XXR0_55__dmy0 XR0_54__dmy0 XR0_55__dmy0 inh_vss rppolywo_m lr=1.005u wr=1u multi=1 m=1
XXR0_56__dmy0 XR0_55__dmy0 XR0_56__dmy0 inh_vss rppolywo_m lr=1.005u wr=1u multi=1 m=1
XXR0_57__dmy0 XR0_56__dmy0 XR0_57__dmy0 inh_vss rppolywo_m lr=1.005u wr=1u multi=1 m=1
XXR0_58__dmy0 XR0_57__dmy0 XR0_58__dmy0 inh_vss rppolywo_m lr=1.005u wr=1u multi=1 m=1
XXR0_59__dmy0 XR0_58__dmy0 net024 inh_vss rppolywo_m lr=1.005u wr=1u multi=1 m=1
**End of R0

XI4 a0 a1 a10 a11 a12 a13 a14 a15 a2 a3 a4 a5 a6 a7 a8 a9 out pvdd s0 s1 s2 s3 inh_vss vrefgen_error_in_dec
XI6 da_2 pvdd net09 net014 vreg inh_vss ls_12
XI5 da_3 pvdd net012 net013 vreg inh_vss ls_12
XI7 da_1 pvdd net07 net08 vreg inh_vss ls_12
XI16 powerdown pvdd net025 net021 vreg inh_vss ls_12
XI8 da_0 pvdd net04 net03 vreg inh_vss ls_12
XU0 net012 net011 pvdd inh_vss sc_invx1_12
XU5 net07 net06 pvdd inh_vss sc_invx1_12
XU2 net09 net010 pvdd inh_vss sc_invx1_12
XU6 net04 net05 pvdd inh_vss sc_invx1_12
XM0 net019 pwrdn pvdd pvdd pch_12_mac l=70n w=30u multi=1 nf=30 sd=160.0n ad=2.4e-12 as=2.52e-12 pd=34.8u ps=37.04u nrd=0.001506 nrs=0.001506 sa=1.50916u sb=1.50916u sa1=437.336n sa2=991.492n sa3=1.18243u sa4=1.40782u sb1=437.336n sb2=991.492n sb3=1.18243u spa=161.236n spa1=161.191n spa2=160.891n spa3=161.02n sap=346.278n spba=196.748n spba1=199.717n dfm_flag=0 sapb=358.265n
XM1 net024 pwrdnb inh_vss inh_vss nch_12_mac l=70n w=20u multi=1 nf=20 sd=160.0n ad=1.6e-12 as=1.72e-12 pd=23.2u ps=25.44u nrd=0.001504 nrs=0.001504 sa=1.09596u sb=1.09596u sa1=381.185n sa2=795.251n sa3=1.01548u sa4=1.02252u sb1=381.185n sb2=795.251n sb3=1.01548u spa=161.857n spa1=161.79n spa2=161.343n spa3=161.536n sap=312.569n spba=197.138n spba1=200.112n dfm_flag=0 sapb=330.374n
XU1 net011 s3 pvdd inh_vss sc_invx4_12
XU4 net06 s1 pvdd inh_vss sc_invx4_12
XU3 net010 s2 pvdd inh_vss sc_invx4_12
XU7 net05 s0 pvdd inh_vss sc_invx4_12